.MODEL PZT2222A NPN IS=29.13f NF=992.6m ISE=9.652f NE=1.516 BF=256.7 IKF=489.9m VAF=80.99 NR=984.4m ISC=320.3p NC=1.608 BR=6.59 IKR=192.9m VAR=101.2 RB=1 RE=193.4m RC=224.8m XTB=0 EG=1.11 XTI=3 CJE=25.89p VJE=689.1m MJE=366.8m TF=293.9p XTF=71.78 VTF=20 ITF=4.797 CJC=10.11p VJC=662.2m MJC=416m XCJC=0.5946 TR=320n FC=938.8m Vceo=40 Icrating=600m mfg=Philips
.model ss8550 pnp is=117.63f bf=178.2 vaf=51.25 ikf=3.303 ise=18.82f ne=1.5 br=5 var=36.68 ikr=0.01 isc=0.2f nc=1.5 rb=122 irb=83.22u rbm=27.07 rc=1 cje=99.51p Vceo=25 Icrating=1.5 mfg=Fairchild